Version 4
SHEET 1 2644 1188
WIRE 768 16 688 16
WIRE 976 16 848 16
WIRE -16 32 -112 32
WIRE 160 32 64 32
WIRE 688 112 688 16
WIRE 768 112 688 112
WIRE 976 112 976 16
WIRE 976 112 832 112
WIRE -112 144 -112 32
WIRE 0 144 -112 144
WIRE 160 144 160 32
WIRE 160 144 64 144
WIRE -256 160 -288 160
WIRE -160 160 -176 160
WIRE 864 160 800 160
WIRE 432 192 432 32
WIRE 528 192 496 192
WIRE 640 192 608 192
WIRE 688 192 688 112
WIRE 688 192 640 192
WIRE 800 192 800 160
WIRE 864 192 864 160
WIRE 80 224 16 224
WIRE -288 256 -288 160
WIRE -288 256 -352 256
WIRE -272 256 -288 256
WIRE -160 256 -160 160
WIRE -160 256 -208 256
WIRE -112 256 -112 144
WIRE -112 256 -160 256
WIRE 16 256 16 224
WIRE 80 256 80 224
WIRE 800 320 800 272
WIRE 640 336 640 192
WIRE 768 336 640 336
WIRE 976 352 976 112
WIRE 976 352 832 352
WIRE 1120 352 1120 240
WIRE 1120 352 976 352
WIRE 1216 352 1120 352
WIRE 1424 352 1296 352
WIRE 640 368 624 368
WIRE 768 368 640 368
WIRE 16 384 16 336
WIRE 1424 384 1424 352
WIRE -112 400 -112 256
WIRE -16 400 -112 400
WIRE 800 400 800 384
WIRE 160 416 160 144
WIRE 160 416 48 416
WIRE 320 416 320 352
WIRE 320 416 160 416
WIRE -128 432 -224 432
WIRE -16 432 -128 432
WIRE 16 464 16 448
WIRE -128 496 -128 432
WIRE 800 512 800 480
WIRE 16 592 16 544
WIRE -128 640 -128 576
WIRE -688 800 -688 720
WIRE -688 944 -688 880
FLAG 864 192 0
FLAG 1120 240 Out_FS
FLAG 1424 384 0
FLAG -688 944 0
FLAG -688 720 Input_bode
FLAG -288 432 Input_bode
FLAG -128 640 0
FLAG 16 592 0
FLAG 80 256 0
FLAG -352 256 0
FLAG 320 352 Out_PreAmp
FLAG 432 32 0
FLAG 800 512 0
FLAG 640 368 Out_PreAmp
SYMBOL res 624 176 R90
WINDOW 0 0 56 VBottom 2
WINDOW 3 32 56 VTop 2
SYMATTR InstName R1
SYMATTR Value 500
SYMBOL res 864 0 R90
WINDOW 0 0 56 VBottom 2
WINDOW 3 32 56 VTop 2
SYMATTR InstName R2
SYMATTR Value 25k
SYMBOL voltage 800 288 R180
WINDOW 0 24 96 Left 2
WINDOW 3 24 16 Left 2
WINDOW 123 0 0 Left 0
WINDOW 39 0 0 Left 0
SYMATTR InstName V1
SYMATTR Value 5
SYMBOL OpAmps\\UniversalOpAmp1 800 352 R0
SYMATTR InstName U1
SYMATTR Value2 Avol=1900 GBW=897.0831Meg Vos=0
SYMBOL res 1312 336 R90
WINDOW 0 0 56 VBottom 2
WINDOW 3 32 56 VTop 2
SYMATTR InstName R3
SYMATTR Value 25
SYMBOL cap 496 176 R90
WINDOW 0 0 32 VBottom 2
WINDOW 3 32 32 VTop 2
SYMATTR InstName C1
SYMATTR Value 5p
SYMBOL cap 832 96 R90
WINDOW 0 0 32 VBottom 2
WINDOW 3 32 32 VTop 2
SYMATTR InstName C2
SYMATTR Value 100f
SYMBOL voltage -688 784 R0
WINDOW 123 24 44 Left 2
WINDOW 39 24 72 Left 2
WINDOW 3 24 100 Left 2
SYMATTR Value2 AC 0.3
SYMATTR SpiceLine Rser=50
SYMATTR Value PWL file="C:\Users\smili\OneDrive\Documents\GitHub\Laboratorio_6_7_ITeDA\Presentacion-Informe Avance de Proyecto\Datos Diagrama\photon_data_25_combined.txt"
SYMATTR InstName V4
SYMBOL voltage 800 384 R0
WINDOW 0 24 96 Left 2
WINDOW 3 24 16 Left 2
WINDOW 123 0 0 Left 0
WINDOW 39 0 0 Left 0
SYMATTR InstName V5
SYMATTR Value -5
SYMBOL res -144 480 R0
SYMATTR InstName R7
SYMATTR Value 25
SYMBOL cap -224 416 R90
WINDOW 0 0 32 VBottom 2
WINDOW 3 32 32 VTop 2
SYMATTR InstName C6
SYMATTR Value 100n
SYMBOL voltage 16 352 R180
WINDOW 0 24 96 Left 2
WINDOW 3 24 16 Left 2
WINDOW 123 0 0 Left 0
WINDOW 39 0 0 Left 0
SYMATTR InstName V6
SYMATTR Value 5
SYMBOL voltage 16 448 R0
WINDOW 0 24 96 Left 2
WINDOW 3 24 16 Left 2
WINDOW 123 0 0 Left 0
WINDOW 39 0 0 Left 0
SYMATTR InstName V7
SYMATTR Value -5
SYMBOL OpAmps\\UniversalOpAmp1 16 416 R0
SYMATTR InstName U3
SYMATTR Value2 Avol=1900 GBW=897.0831Meg Vos=0
SYMBOL cap -208 240 R90
WINDOW 0 0 32 VBottom 2
WINDOW 3 32 32 VTop 2
SYMATTR InstName C7
SYMATTR Value 15p
SYMBOL cap 64 128 R90
WINDOW 0 0 32 VBottom 2
WINDOW 3 32 32 VTop 2
SYMATTR InstName C8
SYMATTR Value 1.575p
SYMBOL res 80 16 R90
WINDOW 0 0 56 VBottom 2
WINDOW 3 32 56 VTop 2
SYMATTR InstName R8
SYMATTR Value 1Meg
SYMBOL res -160 144 R90
WINDOW 0 0 56 VBottom 2
WINDOW 3 32 56 VTop 2
SYMATTR InstName R4
SYMATTR Value 1Meg
TEXT -776 480 Left 2 !.tran 200n
TEXT -776 448 Left 2 ;.ac dec 1000 10k 1g
