Version 4
SHEET 1 880 680
WIRE 0 -32 -112 -32
WIRE 208 -32 80 -32
WIRE -112 64 -112 -32
WIRE 0 64 -112 64
WIRE 208 64 208 -32
WIRE 208 64 64 64
WIRE 96 112 32 112
WIRE -368 144 -368 -16
WIRE -272 144 -304 144
WIRE -160 144 -192 144
WIRE -112 144 -112 64
WIRE -112 144 -160 144
WIRE 32 144 32 112
WIRE 96 144 96 112
WIRE -752 272 -752 192
WIRE 32 272 32 224
WIRE -160 288 -160 144
WIRE 0 288 -160 288
WIRE 208 304 208 64
WIRE 208 304 64 304
WIRE 352 304 352 192
WIRE 352 304 208 304
WIRE 448 304 352 304
WIRE 656 304 528 304
WIRE 0 320 -144 320
WIRE 656 336 656 304
WIRE -144 400 -144 320
WIRE -752 416 -752 352
WIRE 32 432 32 336
WIRE 32 560 32 512
FLAG 96 144 0
FLAG -144 400 0
FLAG 352 192 Out_FS
FLAG 656 336 0
FLAG 32 560 0
FLAG -752 416 0
FLAG -752 192 Input_bode
FLAG -368 -16 Input_bode
SYMBOL res -176 128 R90
WINDOW 0 0 56 VBottom 2
WINDOW 3 32 56 VTop 2
SYMATTR InstName R1
SYMATTR Value 500
SYMBOL res 96 -48 R90
WINDOW 0 0 56 VBottom 2
WINDOW 3 32 56 VTop 2
SYMATTR InstName R2
SYMATTR Value 25k
SYMBOL voltage 32 240 R180
WINDOW 0 24 96 Left 2
WINDOW 3 24 16 Left 2
WINDOW 123 0 0 Left 0
WINDOW 39 0 0 Left 0
SYMATTR InstName V1
SYMATTR Value 5
SYMBOL OpAmps\\UniversalOpAmp1 32 304 R0
SYMATTR InstName U1
SYMATTR Value2 Avol=750 GBW=358Meg Vos=0
SYMBOL res 544 288 R90
WINDOW 0 0 56 VBottom 2
WINDOW 3 32 56 VTop 2
SYMATTR InstName R3
SYMATTR Value 50
SYMBOL cap -304 128 R90
WINDOW 0 0 32 VBottom 2
WINDOW 3 32 32 VTop 2
SYMATTR InstName C1
SYMATTR Value 5p
SYMBOL cap 64 48 R90
WINDOW 0 0 32 VBottom 2
WINDOW 3 32 32 VTop 2
SYMATTR InstName C2
SYMATTR Value 100f
SYMBOL voltage 32 416 R0
WINDOW 0 24 96 Left 2
WINDOW 3 24 16 Left 2
WINDOW 123 0 0 Left 0
WINDOW 39 0 0 Left 0
SYMATTR InstName V2
SYMATTR Value -5
SYMBOL voltage -752 256 R0
WINDOW 123 24 44 Left 2
WINDOW 39 24 72 Left 2
WINDOW 3 24 100 Left 2
SYMATTR Value2 AC 1 0
SYMATTR SpiceLine Rser=0
SYMATTR Value SINE(0 1 20000000 10n 0 0 1)
SYMATTR InstName V3
TEXT -648 104 Left 2 !.tran 500n
TEXT -648 72 Left 2 ;.ac dec 1000 1 1G
