Version 4
SHEET 1 2920 856
WIRE 2128 -752 2112 -752
WIRE 2256 -752 2208 -752
WIRE 2400 -752 2336 -752
WIRE 2400 -736 2400 -752
WIRE 2112 -704 2112 -752
WIRE 2112 -704 2064 -704
WIRE 2064 -656 1856 -656
WIRE 2112 -656 2112 -704
WIRE 704 -640 704 -720
WIRE 1344 -640 1344 -720
WIRE 2064 -640 2064 -656
WIRE -48 -624 -48 -704
WIRE 2064 -576 2064 -592
WIRE 2064 -576 1856 -576
WIRE 2112 -528 2112 -576
WIRE 704 -496 704 -560
WIRE 1344 -496 1344 -560
WIRE -48 -480 -48 -544
WIRE 160 -368 64 -368
WIRE 384 -368 240 -368
WIRE 64 -256 64 -368
WIRE 176 -256 64 -256
WIRE 384 -256 384 -368
WIRE 384 -256 240 -256
WIRE 1088 -256 976 -256
WIRE 1296 -256 1168 -256
WIRE 16 -176 -32 -176
WIRE 976 -160 976 -256
WIRE 1088 -160 976 -160
WIRE 1296 -160 1296 -256
WIRE 1296 -160 1152 -160
WIRE 272 -112 208 -112
WIRE 1184 -112 1120 -112
WIRE -176 -80 -336 -80
WIRE -112 -80 -112 -176
WIRE -112 -80 -176 -80
WIRE -96 -80 -112 -80
WIRE 16 -80 16 -176
WIRE 16 -80 -32 -80
WIRE 64 -80 64 -256
WIRE 64 -80 16 -80
WIRE 208 -80 208 -112
WIRE 272 -80 272 -112
WIRE 720 -80 720 -240
WIRE 816 -80 784 -80
WIRE 928 -80 896 -80
WIRE 976 -80 976 -160
WIRE 976 -80 928 -80
WIRE 1120 -80 1120 -112
WIRE 1184 -80 1184 -112
WIRE -176 -16 -176 -80
WIRE 208 48 208 0
WIRE 1120 48 1120 0
WIRE 16 64 16 -80
WIRE 176 64 16 64
WIRE 928 64 928 -80
WIRE 1088 64 928 64
WIRE 384 80 384 -256
WIRE 384 80 240 80
WIRE 576 80 576 -32
WIRE 576 80 384 80
WIRE 1296 80 1296 -160
WIRE 1296 80 1152 80
WIRE 1440 80 1440 -32
WIRE 1440 80 1296 80
WIRE 1536 80 1440 80
WIRE 1744 80 1616 80
WIRE 176 96 32 96
WIRE 1088 96 944 96
WIRE 1744 112 1744 80
WIRE -176 128 -176 64
WIRE 32 176 32 96
WIRE 944 176 944 96
WIRE 208 208 208 112
WIRE 1120 208 1120 112
WIRE 208 336 208 288
WIRE 1120 336 1120 288
FLAG -48 -480 0
FLAG -48 -704 Input_1PE
FLAG 704 -496 0
FLAG 704 -720 Input_2PE
FLAG 1344 -496 0
FLAG 1344 -720 Input_3PE
FLAG 2112 -528 0
FLAG 2400 -736 0
FLAG 2064 -704 Out
FLAG 1856 -656 0
FLAG 1856 -576 Out_FS
FLAG 1184 -80 0
FLAG 944 176 0
FLAG 1440 -32 Out_FS
FLAG 1744 112 0
FLAG 720 -240 Out_PreAmp
FLAG 208 336 0
FLAG 272 -80 0
FLAG 32 176 0
FLAG 576 -32 Out_PreAmp
FLAG -336 -80 Input_3PE
FLAG -176 128 0
FLAG 1120 336 0
SYMBOL voltage -48 -640 R0
WINDOW 3 -463 87 Left 2
WINDOW 123 0 0 Left 0
WINDOW 39 0 0 Left 0
SYMATTR Value PWL file=photon_data_1_photoequivalent.txt
SYMATTR InstName V1
SYMBOL voltage 704 -656 R0
WINDOW 3 -463 87 Left 2
WINDOW 123 0 0 Left 0
WINDOW 39 0 0 Left 0
SYMATTR Value PWL file=photon_data_2_photoequivalent.txt
SYMATTR InstName V6
SYMBOL voltage 1344 -656 R0
WINDOW 3 -463 87 Left 2
WINDOW 123 0 0 Left 0
WINDOW 39 0 0 Left 0
SYMATTR Value PWL file=photon_data_3_photoequivalent.txt
SYMATTR InstName V7
SYMBOL sw 2112 -672 R0
SYMATTR InstName S1
SYMBOL voltage 2240 -752 R270
WINDOW 0 32 56 VTop 2
WINDOW 3 -32 56 VBottom 2
WINDOW 123 0 0 Left 0
WINDOW 39 0 0 Left 0
SYMATTR InstName V9
SYMATTR Value 110m
SYMBOL res 2224 -768 R90
WINDOW 0 0 56 VBottom 2
WINDOW 3 32 56 VTop 2
SYMATTR InstName R7
SYMATTR Value 10k
SYMBOL res 912 -96 R90
WINDOW 0 0 56 VBottom 2
WINDOW 3 32 56 VTop 2
SYMATTR InstName R1
SYMATTR Value 500
SYMBOL res 1184 -272 R90
WINDOW 0 0 56 VBottom 2
WINDOW 3 32 56 VTop 2
SYMATTR InstName R2
SYMATTR Value 25k
SYMBOL voltage 1120 16 R180
WINDOW 0 24 96 Left 2
WINDOW 3 24 16 Left 2
WINDOW 123 0 0 Left 0
WINDOW 39 0 0 Left 0
SYMATTR InstName V2
SYMATTR Value 5
SYMBOL OpAmps\\UniversalOpAmp1 1120 80 R0
SYMATTR InstName U1
SYMATTR Value2 Avol=750 GBW=358Meg Vos=0
SYMBOL res 1632 64 R90
WINDOW 0 0 56 VBottom 2
WINDOW 3 32 56 VTop 2
SYMATTR InstName R3
SYMATTR Value 50
SYMBOL cap 784 -96 R90
WINDOW 0 0 32 VBottom 2
WINDOW 3 32 32 VTop 2
SYMATTR InstName C1
SYMATTR Value 5p
SYMBOL cap 1152 -176 R90
WINDOW 0 0 32 VBottom 2
WINDOW 3 32 32 VTop 2
SYMATTR InstName C2
SYMATTR Value 100f
SYMBOL voltage 208 16 R180
WINDOW 0 24 96 Left 2
WINDOW 3 24 16 Left 2
WINDOW 123 0 0 Left 0
WINDOW 39 0 0 Left 0
SYMATTR InstName V3
SYMATTR Value 5
SYMBOL voltage 208 192 R0
WINDOW 0 24 96 Left 2
WINDOW 3 24 16 Left 2
WINDOW 123 0 0 Left 0
WINDOW 39 0 0 Left 0
SYMATTR InstName V4
SYMATTR Value -5
SYMBOL OpAmps\\UniversalOpAmp1 208 80 R0
SYMATTR InstName U2
SYMATTR Value2 Avol=750 GBW=358Meg Vos=0
SYMBOL cap -32 -96 R90
WINDOW 0 0 32 VBottom 2
WINDOW 3 32 32 VTop 2
SYMATTR InstName C3
SYMATTR Value 15p
SYMBOL cap 240 -272 R90
WINDOW 0 0 32 VBottom 2
WINDOW 3 32 32 VTop 2
SYMATTR InstName C4
SYMATTR Value 1.575p
SYMBOL res -192 -32 R0
SYMATTR InstName R4
SYMATTR Value 53.6
SYMBOL res 256 -384 R90
WINDOW 0 0 56 VBottom 2
WINDOW 3 32 56 VTop 2
SYMATTR InstName R5
SYMATTR Value 1Meg
SYMBOL res -128 -192 M90
WINDOW 0 0 56 VBottom 2
WINDOW 3 32 56 VTop 2
SYMATTR InstName R6
SYMATTR Value 1Meg
SYMBOL voltage 1120 192 R0
WINDOW 0 24 96 Left 2
WINDOW 3 24 16 Left 2
WINDOW 123 0 0 Left 0
WINDOW 39 0 0 Left 0
SYMATTR InstName V8
SYMATTR Value -5
TEXT 1800 -200 Left 2 !.tran 160n
TEXT 1840 -456 Left 2 !.model SW SW(Vt=vt, Vh=0, Ron=100Meg, Roff=0.001)
TEXT 1792 -328 Left 2 !.step param vt 75m 85m 0.1m
TEXT 1792 -248 Left 2 !.meas Ones PARAM floor(widthpulse/(3.125e-9))
TEXT 1792 -288 Left 2 !.meas TRAN widthpulse TRIG V(out_fs)=vt RISE=1 TARG V(out_fs)=vt FALL=1
