Version 4
SHEET 1 3940 852
WIRE -1152 -784 -1264 -784
WIRE -944 -784 -1072 -784
WIRE 1568 -736 1552 -736
WIRE 1696 -736 1648 -736
WIRE 1840 -736 1776 -736
WIRE 1840 -720 1840 -736
WIRE 1552 -688 1552 -736
WIRE 1552 -688 1504 -688
WIRE -1056 -640 -1120 -640
WIRE 1504 -640 1296 -640
WIRE 1552 -640 1552 -688
WIRE 1504 -624 1504 -640
WIRE -1424 -608 -1600 -608
WIRE -1312 -608 -1344 -608
WIRE -1264 -608 -1264 -784
WIRE -1264 -608 -1312 -608
WIRE -1120 -608 -1120 -640
WIRE -1056 -608 -1056 -640
WIRE 1504 -560 1504 -576
WIRE 1504 -560 1296 -560
WIRE 1552 -512 1552 -560
WIRE -176 -496 -176 -576
WIRE 432 -496 432 -576
WIRE 1040 -496 1040 -576
WIRE -1120 -480 -1120 -528
WIRE -1312 -464 -1312 -608
WIRE -1152 -464 -1312 -464
WIRE -944 -448 -944 -784
WIRE -944 -448 -1088 -448
WIRE -848 -448 -944 -448
WIRE -752 -448 -752 -560
WIRE -752 -448 -848 -448
WIRE -1152 -432 -1296 -432
WIRE -848 -400 -848 -448
WIRE -1296 -352 -1296 -432
WIRE -176 -352 -176 -416
WIRE 432 -352 432 -416
WIRE 1040 -352 1040 -416
WIRE -1120 -320 -1120 -416
WIRE -848 -288 -848 -320
WIRE -1120 -192 -1120 -240
FLAG -1120 -192 0
FLAG -1056 -608 0
FLAG -176 -352 0
FLAG -1296 -352 0
FLAG -752 -560 Out_PreAmp
FLAG -176 -576 Input_1PE
FLAG 432 -352 0
FLAG 432 -576 Input_2PE
FLAG -1600 -608 Input_3PE
FLAG -848 -288 0
FLAG 1040 -352 0
FLAG 1040 -576 Input_3PE
FLAG 1552 -512 0
FLAG 1840 -720 0
FLAG 1504 -688 Out
FLAG 1296 -640 0
FLAG 1296 -560 Out_PreAmp
SYMBOL res -1328 -624 R90
WINDOW 0 0 56 VBottom 2
WINDOW 3 32 56 VTop 2
SYMATTR InstName R1
SYMATTR Value 1k
SYMBOL res -1056 -800 R90
WINDOW 0 0 56 VBottom 2
WINDOW 3 32 56 VTop 2
SYMATTR InstName R2
SYMATTR Value 10k
SYMBOL voltage -1120 -512 R180
WINDOW 0 24 96 Left 2
WINDOW 3 24 16 Left 2
WINDOW 123 0 0 Left 0
WINDOW 39 0 0 Left 0
SYMATTR InstName V2
SYMATTR Value 5
SYMBOL voltage -1120 -224 R180
WINDOW 0 24 96 Left 2
WINDOW 3 24 16 Left 2
WINDOW 123 0 0 Left 0
WINDOW 39 0 0 Left 0
SYMATTR InstName V3
SYMATTR Value 5
SYMBOL OpAmps\\UniversalOpAmp1 -1120 -448 R0
SYMATTR InstName U1
SYMATTR Value2 Avol=1Meg GBW=100Meg Vos=0
SYMBOL voltage -176 -512 R0
WINDOW 3 -463 87 Left 2
WINDOW 123 0 0 Left 0
WINDOW 39 0 0 Left 0
SYMATTR Value PWL file=photon_data_1_photoequivalent_reflected.txt
SYMATTR InstName V1
SYMBOL voltage 432 -512 R0
WINDOW 3 -463 87 Left 2
WINDOW 123 0 0 Left 0
WINDOW 39 0 0 Left 0
SYMATTR Value PWL file=photon_data_2_photoequivalent_reflected.txt
SYMATTR InstName V6
SYMBOL res -864 -416 R0
SYMATTR InstName R6
SYMATTR Value 10k
SYMBOL voltage 1040 -512 R0
WINDOW 3 -463 87 Left 2
WINDOW 123 0 0 Left 0
WINDOW 39 0 0 Left 0
SYMATTR Value PWL file=photon_data_3_photoequivalent_reflected.txt
SYMATTR InstName V7
SYMBOL sw 1552 -656 R0
SYMATTR InstName S1
SYMBOL voltage 1680 -736 R270
WINDOW 0 32 56 VTop 2
WINDOW 3 -32 56 VBottom 2
WINDOW 123 0 0 Left 0
WINDOW 39 0 0 Left 0
SYMATTR InstName V9
SYMATTR Value 5m
SYMBOL res 1664 -752 R90
WINDOW 0 0 56 VBottom 2
WINDOW 3 32 56 VTop 2
SYMATTR InstName R7
SYMATTR Value 10k
TEXT 1240 -184 Left 2 !.tran 160n
TEXT 1280 -440 Left 2 !.model SW SW(Vt=vt, Vh=0, Ron=100Meg, Roff=0.001)
TEXT 1232 -312 Left 2 !.step param vt 5.2m 6m 0.01m
TEXT 1232 -232 Left 2 !.meas Ones PARAM floor(widthpulse/(3.125e-9))
TEXT 1232 -272 Left 2 !.meas TRAN widthpulse TRIG V(out_preamp)=vt RISE=1 TARG V(out_preamp)=vt FALL=1
TEXT 2216 -608 Left 2 ;Voy a usar el circuito que calcula los thresholds pasando solo por el preamp\nde manera que ver si el problema es el FS \n \nDos temas \n1. sigo usando resistencias xq no lo puedo hacer que simule bien la \nrta en frecuencia con capacitores \n2. hay que pensar si tiene sentiddo seguir poniendo unos cada 3.125ns pero al \nmenos quiero ver la forma funcional\n \nLos valores que salieron de las simulaciones fueron 2.12m, 4.07m, 5.71m\n \nEl valor del threshold  da 4.89m
