Version 4
SHEET 1 2516 1220
WIRE -768 -544 -880 -544
WIRE -560 -544 -704 -544
WIRE 384 -464 272 -464
WIRE 592 -464 464 -464
WIRE -672 -400 -736 -400
WIRE -1040 -368 -1216 -368
WIRE -928 -368 -976 -368
WIRE -880 -368 -880 -544
WIRE -880 -368 -928 -368
WIRE -736 -368 -736 -400
WIRE -672 -368 -672 -400
WIRE 272 -368 272 -464
WIRE 384 -368 272 -368
WIRE 592 -368 592 -464
WIRE 592 -368 448 -368
WIRE 480 -320 416 -320
WIRE -1664 -288 -1664 -368
WIRE 16 -288 16 -448
WIRE 112 -288 80 -288
WIRE 224 -288 192 -288
WIRE 272 -288 272 -368
WIRE 272 -288 224 -288
WIRE 416 -288 416 -320
WIRE 480 -288 480 -320
WIRE -736 -240 -736 -288
WIRE -928 -224 -928 -368
WIRE -768 -224 -928 -224
WIRE -560 -208 -560 -544
WIRE -560 -208 -704 -208
WIRE -464 -208 -560 -208
WIRE -368 -208 -368 -320
WIRE -368 -208 -464 -208
WIRE -768 -192 -912 -192
WIRE -464 -160 -464 -208
WIRE 416 -160 416 -208
WIRE -1664 -144 -1664 -208
WIRE 224 -144 224 -288
WIRE 384 -144 224 -144
WIRE 592 -128 592 -368
WIRE 592 -128 448 -128
WIRE 736 -128 736 -240
WIRE 736 -128 592 -128
WIRE 832 -128 736 -128
WIRE 1040 -128 912 -128
WIRE -912 -112 -912 -192
WIRE 384 -112 240 -112
WIRE 1040 -96 1040 -128
WIRE -736 -80 -736 -176
WIRE -464 -48 -464 -80
WIRE 240 -32 240 -112
WIRE 416 0 416 -96
WIRE -736 48 -736 0
WIRE 416 128 416 80
FLAG 416 128 0
FLAG 480 -288 0
FLAG 240 -32 0
FLAG 736 -240 Out_FS
FLAG 1040 -96 0
FLAG 16 -448 Out_PreAmp
FLAG -1664 -144 0
FLAG -1664 -368 Input_bode
FLAG -736 48 0
FLAG -672 -368 0
FLAG -912 -112 0
FLAG -368 -320 Out_PreAmp
FLAG -1216 -368 Input_bode
FLAG -464 -48 0
SYMBOL res 208 -304 R90
WINDOW 0 0 56 VBottom 2
WINDOW 3 32 56 VTop 2
SYMATTR InstName R1
SYMATTR Value 1500
SYMBOL res 480 -480 R90
WINDOW 0 0 56 VBottom 2
WINDOW 3 32 56 VTop 2
SYMATTR InstName R2
SYMATTR Value 50k
SYMBOL voltage 416 -192 R180
WINDOW 0 24 96 Left 2
WINDOW 3 24 16 Left 2
WINDOW 123 0 0 Left 0
WINDOW 39 0 0 Left 0
SYMATTR InstName V3
SYMATTR Value 5
SYMBOL voltage 416 96 R180
WINDOW 0 24 96 Left 2
WINDOW 3 24 16 Left 2
WINDOW 123 0 0 Left 0
WINDOW 39 0 0 Left 0
SYMATTR InstName V4
SYMATTR Value 5
SYMBOL OpAmps\\UniversalOpAmp1 416 -128 R0
SYMATTR InstName U1
SYMATTR Value2 Avol=1Meg GBW=500Meg Vos=0
SYMBOL res 928 -144 R90
WINDOW 0 0 56 VBottom 2
WINDOW 3 32 56 VTop 2
SYMATTR InstName R3
SYMATTR Value 100k
SYMBOL cap 80 -304 R90
WINDOW 0 0 32 VBottom 2
WINDOW 3 32 32 VTop 2
SYMATTR InstName C1
SYMATTR Value 10p
SYMBOL cap 448 -384 R90
WINDOW 0 0 32 VBottom 2
WINDOW 3 32 32 VTop 2
SYMATTR InstName C2
SYMATTR Value 100f
SYMBOL voltage -736 -272 R180
WINDOW 0 24 96 Left 2
WINDOW 3 24 16 Left 2
WINDOW 123 0 0 Left 0
WINDOW 39 0 0 Left 0
SYMATTR InstName V1
SYMATTR Value 5
SYMBOL voltage -736 16 R180
WINDOW 0 24 96 Left 2
WINDOW 3 24 16 Left 2
WINDOW 123 0 0 Left 0
WINDOW 39 0 0 Left 0
SYMATTR InstName V5
SYMATTR Value 5
SYMBOL OpAmps\\UniversalOpAmp1 -736 -208 R0
SYMATTR InstName U2
SYMATTR Value2 Avol=1Meg GBW=100Meg Vos=0
SYMBOL res -480 -176 R0
SYMATTR InstName R5
SYMATTR Value 10k
SYMBOL voltage -1664 -304 R0
WINDOW 123 24 44 Left 2
WINDOW 39 0 0 Left 0
SYMATTR InstName V2
SYMATTR Value ""
SYMATTR Value2 AC 0.1
SYMBOL cap -976 -384 R90
WINDOW 0 0 32 VBottom 2
WINDOW 3 32 32 VTop 2
SYMATTR InstName C3
SYMATTR Value 15p
SYMBOL cap -704 -560 R90
WINDOW 0 0 32 VBottom 2
WINDOW 3 32 32 VTop 2
SYMATTR InstName C4
SYMATTR Value 600f
TEXT -1720 48 Left 2 ;.tran 600n
TEXT -1720 16 Left 2 !.ac dec 1000 300e3 50e6
