Version 4
SHEET 1 1032 680
WIRE 432 -64 320 -64
WIRE 640 -64 496 -64
WIRE 528 80 464 80
WIRE 80 112 -16 112
WIRE 160 112 80 112
WIRE 272 112 224 112
WIRE 320 112 320 -64
WIRE 320 112 272 112
WIRE 464 112 464 80
WIRE 528 112 528 80
WIRE 80 176 80 112
WIRE -464 192 -464 112
WIRE 464 240 464 192
WIRE 272 256 272 112
WIRE 432 256 272 256
WIRE 640 272 640 -64
WIRE 640 272 496 272
WIRE 832 272 832 160
WIRE 832 272 640 272
WIRE 976 272 832 272
WIRE 432 288 288 288
WIRE 976 304 976 272
WIRE 80 320 80 256
WIRE -464 336 -464 272
WIRE 288 368 288 288
WIRE 464 400 464 304
WIRE 976 416 976 384
WIRE 464 528 464 480
FLAG -464 336 0
FLAG -464 112 Input_bode
FLAG 464 528 0
FLAG 528 112 0
FLAG 288 368 0
FLAG 832 160 Out_PreAmp
FLAG -16 112 Input_bode
FLAG 80 320 0
FLAG 976 416 0
SYMBOL voltage 464 208 R180
WINDOW 0 24 96 Left 2
WINDOW 3 24 16 Left 2
WINDOW 123 0 0 Left 0
WINDOW 39 0 0 Left 0
SYMATTR InstName V1
SYMATTR Value 5
SYMBOL voltage 464 496 R180
WINDOW 0 24 96 Left 2
WINDOW 3 24 16 Left 2
WINDOW 123 0 0 Left 0
WINDOW 39 0 0 Left 0
SYMATTR InstName V2
SYMATTR Value 5
SYMBOL OpAmps\\UniversalOpAmp1 464 272 R0
SYMATTR InstName U1
SYMATTR Value2 Avol=1900 GBW=897.0831Meg Vos=0
SYMBOL voltage -464 176 R0
WINDOW 123 24 44 Left 2
WINDOW 39 24 72 Left 2
WINDOW 3 24 100 Left 2
SYMATTR Value2 AC 0.5
SYMATTR SpiceLine Rser=50
SYMATTR InstName V3
SYMATTR Value 0
SYMBOL cap 224 96 R90
WINDOW 0 0 32 VBottom 2
WINDOW 3 32 32 VTop 2
SYMATTR InstName C1
SYMATTR Value 15p
SYMATTR SpiceLine Rser=0
SYMBOL cap 496 -80 R90
WINDOW 0 0 32 VBottom 2
WINDOW 3 32 32 VTop 2
SYMATTR InstName C2
SYMATTR Value 1.575p
SYMATTR SpiceLine Rser=0
SYMBOL res 64 160 R0
SYMATTR InstName R1
SYMATTR Value 53.6
SYMBOL res 960 288 R0
SYMATTR InstName R2
SYMATTR Value 50
TEXT -520 528 Left 2 ;.tran 600n
TEXT -520 496 Left 2 !.ac dec 1000 300k 40Meg
TEXT -1352 72 Left 2 ;Con las resistencias a 53.6 es con el puerto de calib\n \nSi quiero hacer en el puerto 23, seria
