Version 4
SHEET 1 880 680
WIRE 128 -144 16 -144
WIRE 336 -144 208 -144
WIRE 224 0 160 0
WIRE -144 32 -320 32
WIRE -32 32 -64 32
WIRE 16 32 16 -144
WIRE 16 32 -32 32
WIRE 160 32 160 0
WIRE 224 32 224 0
WIRE 160 160 160 112
WIRE -32 176 -32 32
WIRE 128 176 -32 176
WIRE 336 192 336 -144
WIRE 336 192 192 192
WIRE 432 192 336 192
WIRE 528 192 528 80
WIRE 528 192 432 192
WIRE 128 208 -16 208
WIRE 432 240 432 192
WIRE -16 288 -16 208
WIRE 160 320 160 224
WIRE 432 352 432 320
WIRE -592 384 -592 304
WIRE 160 448 160 400
WIRE -592 528 -592 464
FLAG 160 448 0
FLAG 224 32 0
FLAG -16 288 0
FLAG 528 80 Out_PreAmp
FLAG -320 32 Input_bode
FLAG 432 352 0
FLAG -592 528 0
FLAG -592 304 Input_bode
SYMBOL res -48 16 R90
WINDOW 0 0 56 VBottom 2
WINDOW 3 32 56 VTop 2
SYMATTR InstName R1
SYMATTR Value 1k
SYMBOL voltage 160 128 R180
WINDOW 0 24 96 Left 2
WINDOW 3 24 16 Left 2
WINDOW 123 0 0 Left 0
WINDOW 39 0 0 Left 0
SYMATTR InstName V1
SYMATTR Value 5
SYMBOL voltage 160 416 R180
WINDOW 0 24 96 Left 2
WINDOW 3 24 16 Left 2
WINDOW 123 0 0 Left 0
WINDOW 39 0 0 Left 0
SYMATTR InstName V2
SYMATTR Value 5
SYMBOL OpAmps\\UniversalOpAmp1 160 192 R0
SYMATTR InstName U1
SYMATTR Value2 Avol=1Meg GBW=100Meg Vos=0
SYMBOL res 416 224 R0
SYMATTR InstName R2
SYMATTR Value 10k
SYMBOL res 224 -160 R90
WINDOW 0 0 56 VBottom 2
WINDOW 3 32 56 VTop 2
SYMATTR InstName R3
SYMATTR Value 10k
SYMBOL voltage -592 368 R0
WINDOW 123 24 44 Left 2
WINDOW 39 0 0 Left 0
WINDOW 3 24 72 Left 2
SYMATTR Value2 AC 1
SYMATTR Value SINE(0 1 9e6)
SYMATTR InstName V3
TEXT -792 96 Left 2 ;.tran 600n
TEXT -792 64 Left 2 !.ac dec 1000 1 50e6
