Version 4
SHEET 1 2628 680
WIRE -2848 -384 -2960 -384
WIRE -2640 -384 -2768 -384
WIRE -2960 -288 -2960 -384
WIRE -2848 -288 -2960 -288
WIRE -2640 -288 -2640 -384
WIRE -2640 -288 -2784 -288
WIRE -1008 -256 -1504 -256
WIRE -880 -256 -928 -256
WIRE -2752 -240 -2816 -240
WIRE 672 -240 560 -240
WIRE 848 -240 752 -240
WIRE 2096 -240 1984 -240
WIRE 2272 -240 2176 -240
WIRE -3120 -208 -3216 -208
WIRE -2960 -208 -2960 -288
WIRE -2960 -208 -3040 -208
WIRE -2816 -208 -2816 -240
WIRE -2752 -208 -2752 -240
WIRE -496 -208 -576 -208
WIRE -496 -176 -496 -208
WIRE -576 -144 -576 -208
WIRE -3216 -128 -3216 -208
WIRE -2896 -128 -2976 -128
WIRE -1040 -112 -1072 -112
WIRE 560 -112 560 -240
WIRE 672 -112 560 -112
WIRE 848 -112 848 -240
WIRE 848 -112 736 -112
WIRE 1984 -112 1984 -240
WIRE 2096 -112 1984 -112
WIRE 2272 -112 2272 -240
WIRE 2272 -112 2160 -112
WIRE -2896 -96 -2896 -128
WIRE -1040 -96 -1040 -112
WIRE -2816 -80 -2816 -128
WIRE -1072 -80 -1072 -112
WIRE -1008 -80 -1072 -80
WIRE -2976 -64 -2976 -128
WIRE -2848 -64 -2976 -64
WIRE -2640 -48 -2640 -288
WIRE -2640 -48 -2784 -48
WIRE -2560 -48 -2640 -48
WIRE -3040 -32 -3040 -208
WIRE -2848 -32 -3040 -32
WIRE -576 -32 -576 -64
WIRE 736 -32 736 -48
WIRE -976 -16 -976 -96
WIRE 304 -16 128 -16
WIRE 560 -16 560 -112
WIRE 560 -16 368 -16
WIRE 704 -16 560 -16
WIRE 1728 -16 1552 -16
WIRE 1984 -16 1984 -112
WIRE 1984 -16 1792 -16
WIRE 2128 -16 1984 -16
WIRE -1136 0 -1296 0
WIRE -1040 0 -1056 0
WIRE -1008 0 -1008 -80
WIRE 848 0 848 -112
WIRE 848 0 768 0
WIRE 1088 0 848 0
WIRE 2272 0 2272 -112
WIRE 2272 0 2192 0
WIRE 2512 0 2272 0
WIRE -3216 16 -3216 -48
WIRE -1296 16 -1296 0
WIRE -880 16 -880 -256
WIRE -880 16 -944 16
WIRE -832 16 -880 16
WIRE 704 16 640 16
WIRE 2128 16 2064 16
WIRE -1040 32 -1040 0
WIRE -1024 32 -1040 32
WIRE -1008 32 -1024 32
WIRE -2816 80 -2816 -16
WIRE 128 96 128 -16
WIRE 1552 96 1552 -16
WIRE 640 128 640 16
WIRE 2064 128 2064 16
WIRE -1296 144 -1296 96
WIRE -976 160 -976 48
WIRE -2816 208 -2816 160
WIRE -1504 256 -1504 -256
WIRE -1024 256 -1024 32
WIRE -1024 256 -1504 256
WIRE 128 272 128 176
WIRE 1552 272 1552 176
FLAG 640 128 0
FLAG 128 272 0
FLAG 1088 0 out-amp
FLAG -496 -176 0
FLAG -576 -32 vin
FLAG 2064 128 0
FLAG 1552 272 0
FLAG 2512 0 out-amp
FLAG -1296 144 0
FLAG -976 160 0
FLAG -976 -96 vin
FLAG -1040 -96 0
FLAG -2816 208 0
FLAG -2752 -208 0
FLAG -2896 -96 0
FLAG -3216 16 0
SYMBOL voltage 128 80 R0
SYMATTR InstName V1
SYMATTR Value AC 1
SYMBOL cap 368 -32 R90
WINDOW 0 0 32 VBottom 2
WINDOW 3 32 32 VTop 2
SYMATTR InstName C1
SYMATTR Value 1.5p
SYMBOL cap 736 -128 R90
WINDOW 0 0 32 VBottom 2
WINDOW 3 32 32 VTop 2
SYMATTR InstName C2
SYMATTR Value 1.5p
SYMBOL OpAmps\\LTC6240 736 0 R0
SYMATTR InstName U2
SYMBOL voltage -576 -48 R180
WINDOW 0 24 96 Left 2
WINDOW 3 24 16 Left 2
WINDOW 123 0 0 Left 0
WINDOW 39 0 0 Left 0
SYMATTR InstName V2
SYMATTR Value 10
SYMBOL res 768 -256 R90
WINDOW 0 0 56 VBottom 2
WINDOW 3 32 56 VTop 2
SYMATTR InstName R1
SYMATTR Value 10k
SYMBOL voltage 1552 80 R0
SYMATTR InstName V3
SYMATTR Value AC 1
SYMBOL cap 1792 -32 R90
WINDOW 0 0 32 VBottom 2
WINDOW 3 32 32 VTop 2
SYMATTR InstName C3
SYMATTR Value 1.5p
SYMBOL cap 2160 -128 R90
WINDOW 0 0 32 VBottom 2
WINDOW 3 32 32 VTop 2
SYMATTR InstName C4
SYMATTR Value 1.5p
SYMBOL res 2192 -256 R90
WINDOW 0 0 56 VBottom 2
WINDOW 3 32 56 VTop 2
SYMATTR InstName R2
SYMATTR Value 10k
SYMBOL voltage -1296 0 R0
SYMATTR InstName V4
SYMATTR Value AC 1
SYMBOL OpAmps\\UniversalOpAmp2 -976 16 R0
SYMATTR InstName U3
SYMATTR Value2 Avol=1Meg GBW=100Meg Slew=10Meg
SYMBOL res -1040 -16 R90
WINDOW 0 0 56 VBottom 2
WINDOW 3 32 56 VTop 2
SYMATTR InstName R3
SYMATTR Value 1
SYMBOL res -912 -272 R90
WINDOW 0 0 56 VBottom 2
WINDOW 3 32 56 VTop 2
SYMATTR InstName R4
SYMATTR Value 1
SYMBOL voltage -3216 -144 R0
WINDOW 123 0 0 Left 0
WINDOW 39 0 0 Left 0
SYMATTR InstName V5
SYMATTR Value AC 1
SYMBOL res -3024 -224 R90
WINDOW 0 0 56 VBottom 2
WINDOW 3 32 56 VTop 2
SYMATTR InstName R5
SYMATTR Value 1k
SYMBOL res -2752 -400 R90
WINDOW 0 0 56 VBottom 2
WINDOW 3 32 56 VTop 2
SYMATTR InstName R6
SYMATTR Value 10k
SYMBOL OpAmps\\UniversalOpAmp2 -2816 -48 R0
SYMATTR InstName U1
SYMATTR Value2 Avol=1Meg GBW=100Meg Slew=10Meg
SYMBOL voltage -2816 -112 R180
WINDOW 0 24 96 Left 2
WINDOW 3 24 16 Left 2
WINDOW 123 0 0 Left 0
WINDOW 39 0 0 Left 0
SYMATTR InstName V6
SYMATTR Value 5
SYMBOL voltage -2816 176 R180
WINDOW 0 24 96 Left 2
WINDOW 3 24 16 Left 2
WINDOW 123 0 0 Left 0
WINDOW 39 0 0 Left 0
SYMATTR InstName V7
SYMATTR Value 5
SYMBOL cap -2784 -304 R90
WINDOW 0 0 32 VBottom 2
WINDOW 3 32 32 VTop 2
SYMATTR InstName C5
SYMATTR Value 1.5p
TEXT 88 296 Left 2 !.ac dec 1000 1e5 1e9
